Version 4
SHEET 1 880 680
WIRE 144 64 -32 64
WIRE 272 64 224 64
WIRE -32 160 -32 64
WIRE -32 160 -80 160
WIRE 160 160 -32 160
WIRE -80 176 -80 160
WIRE 272 176 272 64
WIRE 272 176 224 176
WIRE 96 192 -16 192
WIRE 160 192 96 192
WIRE -16 208 -16 192
WIRE 96 272 96 256
FLAG 192 144 Vcc
FLAG 192 208 -Vcc
FLAG -16 288 0
FLAG -80 256 0
FLAG 96 272 -Vcc
SYMBOL OpAmps\\UniversalOpAmp4 192 176 R0
SYMATTR InstName U1
SYMBOL res 240 48 R90
WINDOW 0 0 56 VBottom 2
WINDOW 3 32 56 VTop 2
SYMATTR InstName R1
SYMATTR Value 10k
SYMBOL res -96 160 R0
SYMATTR InstName R2
SYMATTR Value 1k
SYMBOL res -32 192 R0
SYMATTR InstName R3
SYMATTR Value 33k
SYMBOL diode 80 192 R0
SYMATTR InstName D1
