Version 4
SHEET 1 1032 680
WIRE 320 32 192 32
WIRE 464 32 400 32
WIRE 192 64 192 32
WIRE 96 112 96 80
WIRE 96 112 -144 112
WIRE 128 112 96 112
WIRE -144 128 -144 112
WIRE 96 144 96 112
WIRE 192 176 192 160
WIRE -144 240 -144 208
FLAG 192 256 0
FLAG 96 224 0
FLAG 96 0 +Vcc
FLAG -144 240 0
FLAG 544 32 +Vcc
FLAG 384 256 0
FLAG 384 176 +Vcc
SYMBOL res 176 160 R0
SYMATTR InstName R1
SYMATTR Value 1k
SYMBOL res 80 -16 R0
SYMATTR InstName R2
SYMATTR Value 1Mega
SYMBOL res 80 128 R0
SYMATTR InstName R3
SYMATTR Value 560k
SYMBOL voltage -144 112 R0
WINDOW 123 0 0 Left 0
WINDOW 39 0 0 Left 0
SYMATTR InstName V1
SYMATTR Value SINE(0 3 20k)
SYMBOL res 416 16 R90
WINDOW 0 0 56 VBottom 2
WINDOW 3 32 56 VTop 2
SYMATTR InstName R4
SYMATTR Value 220
SYMBOL res 560 16 R90
WINDOW 0 0 56 VBottom 2
WINDOW 3 32 56 VTop 2
SYMATTR InstName Laser
SYMATTR Value 150
SYMBOL voltage 384 160 R0
WINDOW 123 0 0 Left 0
WINDOW 39 0 0 Left 0
SYMATTR InstName V2
SYMATTR Value 12
SYMBOL pnp 128 64 R0
SYMATTR InstName Q1
SYMATTR Value BC557B
TEXT 144 320 Left 2 !.tran 0 1.001 1
