Version 4
SHEET 1 924 680
WIRE -16 192 -16 160
WIRE 64 192 64 160
WIRE 144 192 144 160
WIRE 288 240 256 240
WIRE 384 240 368 240
WIRE 688 240 656 240
WIRE 784 240 768 240
WIRE 256 352 256 240
WIRE 256 352 224 352
WIRE 304 352 256 352
WIRE 656 352 656 240
WIRE 656 352 624 352
WIRE 704 352 656 352
WIRE 384 368 384 240
WIRE 384 368 368 368
WIRE 416 368 384 368
WIRE 784 368 784 240
WIRE 784 368 768 368
WIRE 304 384 272 384
WIRE 704 384 672 384
WIRE 32 432 0 432
WIRE 144 432 112 432
WIRE 160 432 144 432
WIRE 272 432 272 384
WIRE 272 432 240 432
WIRE 416 432 416 368
WIRE 432 432 416 432
WIRE 544 432 512 432
WIRE 560 432 544 432
WIRE 672 432 672 384
WIRE 672 432 640 432
WIRE 144 464 144 432
WIRE 544 464 544 432
WIRE 384 528 384 368
WIRE 384 528 144 528
WIRE 784 528 784 368
WIRE 784 528 544 528
FLAG 64 272 0
FLAG -16 272 0
FLAG 144 272 0
FLAG -16 160 Vcc
FLAG 64 160 -Vcc
FLAG 144 160 Vin
FLAG 336 336 Vcc
FLAG 336 400 -Vcc
FLAG 272 496 0
FLAG 144 352 0
FLAG 0 432 Vin
FLAG 736 336 Vcc
FLAG 736 400 -Vcc
FLAG 672 496 0
FLAG 544 352 0
FLAG 784 368 Vout
SYMBOL OpAmps\\UniversalOpAmp 336 368 R0
SYMATTR InstName U1
SYMBOL voltage -16 176 R0
WINDOW 123 0 0 Left 0
WINDOW 39 0 0 Left 0
SYMATTR InstName V1
SYMATTR Value 12
SYMBOL voltage 64 176 R0
WINDOW 123 0 0 Left 0
WINDOW 39 0 0 Left 0
SYMATTR InstName V2
SYMATTR Value -12
SYMBOL voltage 144 176 R0
WINDOW 123 0 0 Left 0
WINDOW 39 0 0 Left 0
SYMATTR InstName V3
SYMATTR Value AC 1.
SYMBOL res 384 224 R90
WINDOW 0 0 56 VBottom 2
WINDOW 3 32 56 VTop 2
SYMATTR InstName R1
SYMATTR Value 4.7k
SYMBOL res 256 416 R90
WINDOW 0 0 56 VBottom 2
WINDOW 3 32 56 VTop 2
SYMATTR InstName R3
SYMATTR Value 10k
SYMBOL cap 128 464 R0
SYMATTR InstName C1
SYMATTR Value 1n
SYMBOL res 240 336 R90
WINDOW 0 0 56 VBottom 2
WINDOW 3 32 56 VTop 2
SYMATTR InstName R2
SYMATTR Value 10k
SYMBOL res 128 416 R90
WINDOW 0 0 56 VBottom 2
WINDOW 3 32 56 VTop 2
SYMATTR InstName R4
SYMATTR Value 10k
SYMBOL cap 256 432 R0
SYMATTR InstName C2
SYMATTR Value 1n
SYMBOL OpAmps\\UniversalOpAmp 736 368 R0
SYMATTR InstName U2
SYMBOL res 784 224 R90
WINDOW 0 0 56 VBottom 2
WINDOW 3 32 56 VTop 2
SYMATTR InstName R5
SYMATTR Value 4.7k
SYMBOL res 656 416 R90
WINDOW 0 0 56 VBottom 2
WINDOW 3 32 56 VTop 2
SYMATTR InstName R6
SYMATTR Value 10k
SYMBOL cap 528 464 R0
SYMATTR InstName C3
SYMATTR Value 1n
SYMBOL res 640 336 R90
WINDOW 0 0 56 VBottom 2
WINDOW 3 32 56 VTop 2
SYMATTR InstName R7
SYMATTR Value 10k
SYMBOL res 528 416 R90
WINDOW 0 0 56 VBottom 2
WINDOW 3 32 56 VTop 2
SYMATTR InstName R8
SYMATTR Value 10k
SYMBOL cap 656 432 R0
SYMATTR InstName C4
SYMATTR Value 1n
TEXT -56 552 Left 2 !.ac dec 1000 100 30k
