Version 4
SHEET 1 1104 680
WIRE 96 -160 0 -160
WIRE 224 -160 176 -160
WIRE 288 -160 224 -160
WIRE 576 -160 368 -160
WIRE 0 -128 0 -160
WIRE 224 -64 224 -160
WIRE 256 -64 224 -64
WIRE 576 -48 576 -160
WIRE 576 -48 320 -48
WIRE 704 -48 576 -48
WIRE 256 -32 112 -32
WIRE 576 -16 576 -48
WIRE -32 0 -96 0
WIRE 112 0 112 -32
WIRE 112 0 48 0
WIRE -96 32 -96 0
WIRE 576 80 576 48
WIRE 112 96 112 0
WIRE 240 160 240 144
WIRE 240 160 160 160
WIRE 320 160 240 160
WIRE 448 208 384 208
WIRE 576 208 576 160
WIRE 576 208 528 208
WIRE 112 224 112 192
WIRE 576 224 576 208
WIRE 240 256 240 160
WIRE 320 272 320 256
WIRE 576 304 576 288
WIRE 320 368 320 352
FLAG -96 112 0
FLAG 112 224 0
FLAG 320 368 0
FLAG 704 -48 Vout
FLAG 0 -128 0
FLAG 288 -80 +Vcc
FLAG 288 -16 -Vcc
FLAG 240 64 +Vcc
FLAG 768 192 0
FLAG 880 192 0
FLAG 768 112 +Vcc
FLAG 880 112 -Vcc
FLAG 240 320 0
FLAG 576 304 0
SYMBOL voltage -96 16 R0
WINDOW 3 -224 88 Left 2
WINDOW 123 0 0 Left 0
WINDOW 39 0 0 Left 0
SYMATTR Value SINE(0 {X} 2k)
SYMATTR InstName V1
SYMBOL res 64 -16 R90
WINDOW 0 0 56 VBottom 2
WINDOW 3 32 56 VTop 2
SYMATTR InstName R1
SYMATTR Value 560k
SYMBOL pjf 160 96 M0
SYMATTR InstName J1
SYMATTR Value 2N5460
SYMBOL res 224 48 R0
SYMATTR InstName R2
SYMATTR Value 100k
SYMBOL npn 384 160 M0
SYMATTR InstName Q1
SYMATTR Value BC547B
SYMBOL OpAmps\\uA741 288 -112 R0
SYMATTR InstName U1
SYMBOL res 192 -176 R90
WINDOW 0 0 56 VBottom 2
WINDOW 3 32 56 VTop 2
SYMATTR InstName R5
SYMATTR Value 470
SYMBOL res 384 -176 R90
WINDOW 0 0 56 VBottom 2
WINDOW 3 32 56 VTop 2
SYMATTR InstName R6
SYMATTR Value 33k
SYMBOL voltage 768 96 R0
WINDOW 123 0 0 Left 0
WINDOW 39 0 0 Left 0
SYMATTR InstName V2
SYMATTR Value 12
SYMBOL voltage 880 96 R0
WINDOW 123 0 0 Left 0
WINDOW 39 0 0 Left 0
SYMATTR InstName V3
SYMATTR Value -12
SYMBOL cap 224 256 R0
SYMATTR InstName C2
SYMATTR Value 10µ
SYMBOL diode 560 -16 R0
SYMATTR InstName D1
SYMATTR Value 1N4148
SYMBOL res 560 64 R0
SYMATTR InstName R3
SYMATTR Value 10k
SYMBOL res 544 192 R90
WINDOW 0 0 56 VBottom 2
WINDOW 3 32 56 VTop 2
SYMATTR InstName R4
SYMATTR Value 100k
SYMBOL cap 560 224 R0
SYMATTR InstName C1
SYMATTR Value 0.1µ
SYMBOL res 304 256 R0
SYMATTR InstName R7
SYMATTR Value 1k
TEXT 752 -16 Left 2 !.step param X 50m 150m 20m
TEXT -128 328 Left 2 !.tran 200m
