Version 4
SHEET 1 1104 680
WIRE 96 -160 0 -160
WIRE 224 -160 176 -160
WIRE 288 -160 224 -160
WIRE 576 -160 368 -160
WIRE 0 -128 0 -160
WIRE 224 -64 224 -160
WIRE 256 -64 224 -64
WIRE 576 -48 576 -160
WIRE 576 -48 320 -48
WIRE 608 -48 576 -48
WIRE 704 -48 672 -48
WIRE 256 -32 112 -32
WIRE -32 0 -96 0
WIRE 112 0 112 -32
WIRE 112 0 48 0
WIRE -96 32 -96 0
WIRE 112 96 112 0
WIRE 240 160 240 144
WIRE 240 160 160 160
WIRE 320 160 240 160
WIRE 480 176 448 176
WIRE 576 176 576 -48
WIRE 576 176 560 176
WIRE 448 208 448 176
WIRE 448 208 384 208
WIRE 576 208 576 176
WIRE 112 224 112 192
WIRE 448 224 448 208
WIRE 240 256 240 160
WIRE 320 288 320 256
FLAG -96 112 0
FLAG 112 224 0
FLAG 320 288 0
FLAG 704 -48 Vout
FLAG 0 -128 0
FLAG 288 -80 +Vcc
FLAG 288 -16 -Vcc
FLAG 240 64 +Vcc
FLAG 768 192 0
FLAG 880 192 0
FLAG 768 112 +Vcc
FLAG 880 112 -Vcc
FLAG 240 320 0
FLAG 448 304 0
FLAG 576 288 0
SYMBOL voltage -96 16 R0
WINDOW 3 -224 88 Left 2
WINDOW 123 0 0 Left 0
WINDOW 39 0 0 Left 0
SYMATTR InstName V1
SYMATTR Value SINE(0 {X} 2k)
SYMBOL res 64 -16 R90
WINDOW 0 0 56 VBottom 2
WINDOW 3 32 56 VTop 2
SYMATTR InstName R1
SYMATTR Value 1k
SYMBOL pjf 160 96 M0
SYMATTR InstName J1
SYMATTR Value 2N5460
SYMBOL res 224 48 R0
SYMATTR InstName R2
SYMATTR Value 100k
SYMBOL npn 384 160 M0
SYMATTR InstName Q1
SYMATTR Value BC547B
SYMBOL OpAmps\\uA741 288 -112 R0
SYMATTR InstName U1
SYMBOL res 192 -176 R90
WINDOW 0 0 56 VBottom 2
WINDOW 3 32 56 VTop 2
SYMATTR InstName R5
SYMATTR Value 470
SYMBOL res 384 -176 R90
WINDOW 0 0 56 VBottom 2
WINDOW 3 32 56 VTop 2
SYMATTR InstName R6
SYMATTR Value 33k
SYMBOL voltage 768 96 R0
WINDOW 123 0 0 Left 0
WINDOW 39 0 0 Left 0
SYMATTR InstName V2
SYMATTR Value 12
SYMBOL voltage 880 96 R0
WINDOW 123 0 0 Left 0
WINDOW 39 0 0 Left 0
SYMATTR InstName V3
SYMATTR Value -12
SYMBOL cap 224 256 R0
SYMATTR InstName C2
SYMATTR Value 10µ
SYMBOL res 432 208 R0
SYMATTR InstName R3
SYMATTR Value 10k
SYMBOL res 576 160 R90
WINDOW 0 0 56 VBottom 2
WINDOW 3 32 56 VTop 2
SYMATTR InstName R4
SYMATTR Value 40k
SYMBOL res 560 192 R0
SYMATTR InstName R7
SYMATTR Value 10k
SYMBOL cap 672 -64 R90
WINDOW 0 0 32 VBottom 2
WINDOW 3 32 32 VTop 2
SYMATTR InstName C1
SYMATTR Value 10µ
TEXT 752 -16 Left 2 !.step param X 50m 150m 20m
TEXT -130 328 Left 2 !.tran 200m
