Version 4
SHEET 1 916 680
WIRE 32 384 -16 384
WIRE 144 384 112 384
WIRE 176 384 176 368
WIRE 224 400 208 400
WIRE 320 400 288 400
WIRE 384 400 320 400
WIRE 448 400 384 400
WIRE 480 400 480 384
WIRE -16 416 -16 384
WIRE 144 416 112 416
WIRE 320 416 320 400
WIRE 384 416 384 400
WIRE 576 416 512 416
WIRE 592 416 576 416
WIRE 224 432 224 400
WIRE 448 432 416 432
WIRE 176 448 176 432
WIRE 480 464 480 448
WIRE 112 528 112 416
WIRE 224 528 224 496
WIRE 224 528 112 528
WIRE 288 528 224 528
WIRE 416 528 416 432
WIRE 416 528 368 528
WIRE 576 528 576 416
WIRE 576 528 416 528
FLAG 672 544 0
FLAG 800 544 0
FLAG 320 480 0
FLAG -16 384 Vin
FLAG 384 496 0
FLAG -16 496 0
FLAG 672 464 +Vcc
FLAG 480 464 +Vcc
FLAG 176 448 +Vcc
FLAG 800 464 -Vcc
FLAG 480 384 -Vcc
FLAG 176 368 -Vcc
FLAG 592 416 Vout
SYMBOL voltage 672 448 R0
WINDOW 123 0 0 Left 0
WINDOW 39 0 0 Left 0
SYMATTR InstName V1
SYMATTR Value 12
SYMBOL voltage 800 448 R0
WINDOW 123 0 0 Left 0
WINDOW 39 0 0 Left 0
SYMATTR InstName V2
SYMATTR Value -12
SYMBOL diode 224 416 R270
WINDOW 0 32 32 VTop 2
WINDOW 3 60 98 VBottom 2
SYMATTR InstName D1
SYMATTR Value 1N4148
SYMBOL cap 304 416 R0
SYMATTR InstName C1
SYMATTR Value 1µ
SYMBOL uA741 176 464 M180
WINDOW 0 76 13 Left 2
WINDOW 3 17 126 Left 2
SYMATTR InstName U1
SYMATTR Value LF351/NS
SYMBOL uA741 480 480 M180
SYMATTR InstName U2
SYMATTR Value LF351/NS
SYMBOL res 128 368 R90
WINDOW 0 0 56 VBottom 2
WINDOW 3 32 56 VTop 2
SYMATTR InstName R1
SYMATTR Value 10k
SYMBOL diode 240 496 R180
WINDOW 0 24 64 Left 2
WINDOW 3 -48 2 Left 2
SYMATTR InstName D2
SYMATTR Value 1N4148
SYMBOL res 384 512 R90
WINDOW 0 5 61 VBottom 2
WINDOW 3 32 56 VTop 2
SYMATTR InstName R2
SYMATTR Value 10k
SYMBOL res 368 400 R0
WINDOW 0 34 43 Left 2
SYMATTR InstName R3
SYMATTR Value 10k
SYMBOL voltage -16 400 R0
WINDOW 123 0 0 Left 0
WINDOW 39 0 0 Left 0
SYMATTR InstName V3
SYMATTR Value SINE(0 4 20k)
TEXT -96 576 Left 2 !.tran 0.005
TEXT -136 648 Left 2 !.include C:\\Users\\AHMET\\Desktop\\ODTÜ\\3.SINIF\\EE313\\EE313-Project\\sim\\LF351.MOD
