Version 4
SHEET 1 916 680
WIRE 64 400 32 400
WIRE 224 416 208 416
WIRE 320 416 288 416
WIRE 384 416 320 416
WIRE 448 416 384 416
WIRE 144 432 112 432
WIRE 224 432 224 416
WIRE 576 432 512 432
WIRE 592 432 576 432
WIRE 448 448 416 448
WIRE 112 496 112 432
WIRE 224 496 112 496
WIRE 224 528 224 496
WIRE 288 528 224 528
WIRE 416 528 416 448
WIRE 416 528 368 528
WIRE 576 528 576 432
WIRE 576 528 416 528
FLAG -16 64 0
FLAG 112 64 0
FLAG -16 -16 V1
FLAG 112 -16 V2
FLAG -48 400 0
FLAG 176 448 V1
FLAG 176 384 V2
FLAG 320 480 0
FLAG 480 464 V1
FLAG 480 400 V2
FLAG 32 400 Vin
FLAG 384 496 0
SYMBOL voltage -16 -32 R0
WINDOW 123 0 0 Left 0
WINDOW 39 0 0 Left 0
SYMATTR InstName V1
SYMATTR Value 15
SYMBOL voltage 112 -32 R0
WINDOW 123 0 0 Left 0
WINDOW 39 0 0 Left 0
SYMATTR InstName V2
SYMATTR Value -15
SYMBOL voltage 48 400 R90
WINDOW 0 -32 56 VBottom 2
WINDOW 3 32 56 VTop 2
WINDOW 123 0 0 Left 0
WINDOW 39 0 0 Left 0
SYMATTR InstName V3
SYMATTR Value SINE(0 4 20k)
SYMBOL diode 224 432 R270
WINDOW 0 32 32 VTop 2
WINDOW 3 60 98 VBottom 2
SYMATTR InstName D1
SYMATTR Value 1N4148
SYMBOL cap 304 416 R0
SYMATTR InstName C1
SYMATTR Value 1µ
SYMBOL uA741 176 480 M180
WINDOW 0 76 13 Left 2
WINDOW 3 17 126 Left 2
SYMATTR InstName U1
SYMATTR Value LF351/NS
SYMBOL uA741 480 496 M180
SYMATTR InstName U2
SYMATTR Value LF351/NS
SYMBOL res 160 384 R90
WINDOW 0 0 56 VBottom 2
WINDOW 3 32 56 VTop 2
SYMATTR InstName R1
SYMATTR Value 10k
SYMBOL diode 240 496 R180
WINDOW 0 24 64 Left 2
WINDOW 3 50 -25 Left 2
SYMATTR InstName D2
SYMATTR Value 1N4148
SYMBOL res 384 512 R90
WINDOW 0 5 61 VBottom 2
WINDOW 3 32 56 VTop 2
SYMATTR InstName R2
SYMATTR Value 10k
SYMBOL res 368 400 R0
SYMATTR InstName R3
SYMATTR Value 10k
TEXT -96 576 Left 2 !.tran 0.01
TEXT -136 648 Left 2 !.include C:\\Users\\AHMET\\Desktop\\ODTÜ\\3.SINIF\\EE313\\EE313-Project\\sim\\LF351.MOD
