Version 4
SHEET 1 880 680
WIRE 256 32 224 32
WIRE 384 32 336 32
WIRE 112 128 48 128
WIRE 224 128 224 32
WIRE 224 128 192 128
WIRE 224 144 224 128
WIRE 272 144 224 144
WIRE 384 160 384 32
WIRE 384 160 336 160
WIRE 416 160 384 160
WIRE 272 176 256 176
WIRE 112 224 48 224
WIRE 224 224 224 144
WIRE 224 224 192 224
WIRE 256 224 256 176
FLAG 256 224 0
FLAG 304 128 +12
FLAG 304 192 -12
FLAG 48 128 Audio_signal
IOPIN 48 128 In
FLAG 48 224 Reference_signal
IOPIN 48 224 In
FLAG 416 160 Vout
IOPIN 416 160 Out
SYMBOL res 208 112 R90
WINDOW 0 0 56 VBottom 2
WINDOW 3 32 56 VTop 2
SYMATTR InstName R1
SYMATTR Value 1k
SYMBOL res 208 208 R90
WINDOW 0 0 56 VBottom 2
WINDOW 3 32 56 VTop 2
SYMATTR InstName R2
SYMATTR Value 1.8k
SYMBOL OpAmps\\UniversalOpAmp2 304 160 R0
SYMATTR InstName U1
SYMBOL res 352 16 R90
WINDOW 0 0 56 VBottom 2
WINDOW 3 32 56 VTop 2
SYMATTR InstName R3
SYMATTR Value 1.2k
