Version 4
SHEET 1 2676 680
WIRE 624 -112 528 -112
WIRE 752 -112 704 -112
WIRE 816 -112 752 -112
WIRE 1104 -112 896 -112
WIRE 96 -80 48 -80
WIRE 224 -80 176 -80
WIRE 528 -80 528 -112
WIRE 1952 -64 1920 -64
WIRE 2048 -64 2032 -64
WIRE 416 -48 272 -48
WIRE 1440 -48 1424 -48
WIRE 1536 -48 1520 -48
WIRE 48 -32 48 -80
WIRE 48 -32 -64 -32
WIRE 752 -16 752 -112
WIRE 784 -16 752 -16
WIRE 1104 0 1104 -112
WIRE 1104 0 848 0
WIRE 1232 0 1104 0
WIRE 784 16 640 16
WIRE 272 32 272 -48
WIRE 304 32 272 32
WIRE 1104 32 1104 0
WIRE 48 48 48 -32
WIRE 80 48 48 48
WIRE 416 48 416 -48
WIRE 416 48 368 48
WIRE 496 48 416 48
WIRE 640 48 640 16
WIRE 640 48 576 48
WIRE 224 64 224 -80
WIRE 224 64 144 64
WIRE 304 64 224 64
WIRE 1920 64 1920 -64
WIRE 1920 64 1888 64
WIRE 1968 64 1920 64
WIRE -48 80 -64 80
WIRE -32 80 -48 80
WIRE 48 80 32 80
WIRE 80 80 48 80
WIRE 1424 80 1424 -48
WIRE 1424 80 1392 80
WIRE 1456 80 1424 80
WIRE 2048 80 2048 -64
WIRE 2048 80 2032 80
WIRE 2208 80 2048 80
WIRE 1536 96 1536 -48
WIRE 1536 96 1520 96
WIRE 1600 96 1536 96
WIRE 1968 96 1936 96
WIRE 48 112 48 80
WIRE 1456 112 1392 112
WIRE 1104 128 1104 96
WIRE 640 144 640 48
WIRE 1600 144 1600 96
WIRE 1680 144 1600 144
WIRE 1808 144 1760 144
WIRE 1824 144 1808 144
WIRE 1936 144 1936 96
WIRE 1936 144 1904 144
WIRE -48 160 -48 80
WIRE 1232 160 1232 0
WIRE 1264 160 1232 160
WIRE 1392 160 1392 112
WIRE 1392 160 1344 160
WIRE 1808 176 1808 144
WIRE 768 208 768 192
WIRE 768 208 688 208
WIRE 848 208 768 208
WIRE 2048 240 2048 80
WIRE 2048 240 1808 240
WIRE 976 256 912 256
WIRE 1104 256 1104 208
WIRE 1104 256 1056 256
WIRE 640 272 640 240
WIRE 1104 272 1104 256
WIRE 768 304 768 208
WIRE 848 320 848 304
WIRE 1920 320 1888 320
WIRE 2048 320 2000 320
WIRE 1104 352 1104 336
WIRE 1824 352 1680 352
WIRE 848 416 848 400
WIRE 1184 432 1152 432
WIRE 1312 432 1264 432
WIRE 1456 432 1392 432
WIRE 1824 432 1824 352
WIRE 1824 432 1792 432
WIRE 1680 448 1680 352
WIRE 1680 448 1616 448
WIRE 1728 448 1680 448
WIRE 2048 448 2048 320
WIRE 2048 448 2000 448
WIRE 2080 448 2048 448
WIRE 2208 448 2208 80
WIRE 2208 448 2160 448
WIRE 2256 448 2208 448
WIRE 1456 464 1456 432
WIRE 1888 464 1888 320
WIRE 1888 464 1792 464
WIRE 1936 464 1888 464
WIRE 2016 480 2000 480
WIRE 1552 512 1552 480
WIRE 1552 512 1520 512
WIRE 1616 512 1616 448
WIRE 1616 512 1552 512
WIRE 2016 528 2016 480
WIRE 1552 544 1552 512
WIRE 2048 544 2048 448
WIRE 2080 544 2048 544
WIRE 2208 544 2160 544
WIRE 1456 576 1456 560
FLAG 48 192 0
FLAG 272 272 0
FLAG 368 272 0
FLAG 272 192 +12
FLAG 368 192 -12
FLAG -144 -32 0
FLAG -48 160 Microphone
IOPIN -48 160 In
FLAG 640 272 0
FLAG 848 416 0
FLAG 528 -80 0
FLAG 816 -32 +Vcc
FLAG 816 32 -Vcc
FLAG 768 112 +Vcc
FLAG 768 368 0
FLAG 1104 352 0
FLAG 1936 208 0
FLAG 1808 64 0
FLAG 1312 80 0
FLAG 1392 224 0
FLAG 336 16 +Vcc
FLAG 112 32 +Vcc
FLAG 336 80 -Vcc
FLAG 112 96 -Vcc
FLAG 1488 64 +Vcc
FLAG 1488 128 -Vcc
FLAG 2000 48 +Vcc
FLAG 2000 112 -Vcc
FLAG 2016 528 0
FLAG 2256 448 Audio_signal
IOPIN 2256 448 In
FLAG 2208 544 Reference_signal
IOPIN 2208 544 In
FLAG 1968 432 +Vcc
FLAG 1968 496 -Vcc
FLAG -144 80 +Vcc
FLAG 1760 416 +Vcc
FLAG 1760 480 -Vcc
FLAG 1456 656 0
FLAG 1552 624 0
FLAG 1552 400 +Vcc
FLAG 1152 432 +Vcc
SYMBOL res -48 64 R90
WINDOW 0 0 56 VBottom 2
WINDOW 3 32 56 VTop 2
SYMATTR InstName R1
SYMATTR Value 1K
SYMBOL cap 32 64 R90
WINDOW 0 0 32 VBottom 2
WINDOW 3 32 32 VTop 2
SYMATTR InstName C1
SYMATTR Value 0.1µ
SYMBOL OpAmps\\UniversalOpAmp2 112 64 R0
SYMATTR InstName U1
SYMBOL res 32 96 R0
SYMATTR InstName R2
SYMATTR Value 1Mega
SYMBOL res 192 -96 R90
WINDOW 0 0 56 VBottom 2
WINDOW 3 32 56 VTop 2
SYMATTR InstName R3
SYMATTR Value 1Mega
SYMBOL voltage 272 176 R0
WINDOW 123 0 0 Left 0
WINDOW 39 0 0 Left 0
SYMATTR InstName V1
SYMATTR Value 12
SYMBOL voltage 368 176 R0
WINDOW 123 0 0 Left 0
WINDOW 39 0 0 Left 0
SYMATTR InstName V2
SYMATTR Value -12
SYMBOL res -48 -48 R90
WINDOW 0 0 56 VBottom 2
WINDOW 3 32 56 VTop 2
SYMATTR InstName R4
SYMATTR Value POT
SYMBOL OpAmps\\UniversalOpAmp2 336 48 R0
SYMATTR InstName U2
SYMBOL res 592 32 R90
WINDOW 0 0 56 VBottom 2
WINDOW 3 32 56 VTop 2
SYMATTR InstName R5
SYMATTR Value 560k
SYMBOL pjf 688 144 M0
SYMATTR InstName J1
SYMATTR Value 2N5460
SYMBOL res 752 96 R0
SYMATTR InstName R6
SYMATTR Value 100k
SYMBOL npn 912 208 M0
SYMATTR InstName Q1
SYMATTR Value BC547B
SYMBOL OpAmps\\uA741 816 -64 R0
SYMATTR InstName U3
SYMBOL res 720 -128 R90
WINDOW 0 0 56 VBottom 2
WINDOW 3 32 56 VTop 2
SYMATTR InstName R7
SYMATTR Value 470
SYMBOL res 912 -128 R90
WINDOW 0 0 56 VBottom 2
WINDOW 3 32 56 VTop 2
SYMATTR InstName R8
SYMATTR Value 33k
SYMBOL cap 752 304 R0
SYMATTR InstName C2
SYMATTR Value 10µ
SYMBOL diode 1088 32 R0
SYMATTR InstName D1
SYMATTR Value 1N4148
SYMBOL res 1088 112 R0
SYMATTR InstName R9
SYMATTR Value 10k
SYMBOL res 1072 240 R90
WINDOW 0 0 56 VBottom 2
WINDOW 3 32 56 VTop 2
SYMATTR InstName R10
SYMATTR Value 100k
SYMBOL cap 1088 272 R0
SYMATTR InstName C3
SYMATTR Value 0.1µ
SYMBOL res 832 304 R0
SYMATTR InstName R11
SYMATTR Value 1k
SYMBOL OpAmps\\UniversalOpAmp 2000 80 R0
SYMATTR InstName U4
SYMBOL res 2048 -80 R90
WINDOW 0 0 56 VBottom 2
WINDOW 3 32 56 VTop 2
SYMATTR InstName R12
SYMATTR Value 4.7k
SYMBOL res 1808 160 R270
WINDOW 0 32 56 VTop 2
WINDOW 3 0 56 VBottom 2
SYMATTR InstName R13
SYMATTR Value 33k
SYMBOL cap 1952 208 R180
WINDOW 0 24 56 Left 2
WINDOW 3 24 8 Left 2
SYMATTR InstName C4
SYMATTR Value 1n
SYMBOL res 1904 48 R90
WINDOW 0 0 56 VBottom 2
WINDOW 3 32 56 VTop 2
SYMATTR InstName R14
SYMATTR Value 10k
SYMBOL res 1664 160 R270
WINDOW 0 32 56 VTop 2
WINDOW 3 0 56 VBottom 2
SYMATTR InstName R15
SYMATTR Value 10k
SYMBOL cap 1824 240 R180
WINDOW 0 24 56 Left 2
WINDOW 3 24 8 Left 2
SYMATTR InstName C5
SYMATTR Value 1n
SYMBOL OpAmps\\UniversalOpAmp 1488 96 R0
SYMATTR InstName U5
SYMBOL res 1536 -64 R90
WINDOW 0 0 56 VBottom 2
WINDOW 3 32 56 VTop 2
SYMATTR InstName R16
SYMATTR Value 4.7k
SYMBOL res 1408 64 R90
WINDOW 0 0 56 VBottom 2
WINDOW 3 32 56 VTop 2
SYMATTR InstName R17
SYMATTR Value 10k
SYMBOL res 1360 144 R90
WINDOW 0 0 56 VBottom 2
WINDOW 3 32 56 VTop 2
SYMATTR InstName R18
SYMATTR Value 33k
SYMBOL cap 1376 160 R0
SYMATTR InstName C6
SYMATTR Value 1n
SYMBOL res 2064 432 M90
WINDOW 0 0 56 VBottom 2
WINDOW 3 32 56 VTop 2
SYMATTR InstName R19
SYMATTR Value 100k
SYMBOL res 2064 528 M90
WINDOW 0 0 56 VBottom 2
WINDOW 3 32 56 VTop 2
SYMATTR InstName R20
SYMATTR Value 56k
SYMBOL OpAmps\\UniversalOpAmp2 1968 464 M0
SYMATTR InstName U6
SYMBOL res 1904 304 M90
WINDOW 0 0 56 VBottom 2
WINDOW 3 32 56 VTop 2
SYMATTR InstName R21
SYMATTR Value 68k
SYMBOL OpAmps\\UniversalOpAmp2 1760 448 M0
SYMATTR InstName U7
SYMBOL res 1472 560 M0
SYMATTR InstName R22
SYMATTR Value 1k
SYMBOL res 1568 384 M0
SYMATTR InstName R23
SYMATTR Value 1Mega
SYMBOL res 1568 528 M0
SYMATTR InstName R24
SYMATTR Value 560k
SYMBOL res 1296 416 M90
WINDOW 0 0 56 VBottom 2
WINDOW 3 32 56 VTop 2
SYMATTR InstName R25
SYMATTR Value 220
SYMBOL res 1168 416 M90
WINDOW 0 0 56 VBottom 2
WINDOW 3 32 56 VTop 2
SYMATTR InstName LASER
SYMATTR Value 150
SYMBOL pnp 1520 464 M0
SYMATTR InstName Q2
SYMATTR Value BC557B
