Version 4
SHEET 1 2020 680
WIRE 816 -320 704 -320
WIRE 1184 -320 1152 -320
WIRE 1296 -320 1264 -320
WIRE 960 -304 880 -304
WIRE 592 -208 592 -224
WIRE 960 -208 960 -304
WIRE 1056 -208 960 -208
WIRE 1152 -208 1152 -320
WIRE 1152 -208 1136 -208
WIRE 1184 -208 1152 -208
WIRE 592 -192 592 -208
WIRE 1296 -192 1296 -320
WIRE 1296 -192 1248 -192
WIRE 1184 -176 1152 -176
WIRE 816 -144 736 -144
WIRE 960 -128 880 -128
WIRE 1056 -128 1024 -128
WIRE 1152 -128 1152 -176
WIRE 1152 -128 1136 -128
WIRE 592 -96 592 -112
WIRE 704 -96 704 -320
WIRE 704 -96 592 -96
WIRE 1152 -96 1152 -128
WIRE 592 -80 592 -96
WIRE 592 16 592 0
WIRE 736 16 736 -144
WIRE 736 16 592 16
WIRE 816 32 736 32
WIRE 1184 32 1152 32
WIRE 1296 32 1264 32
WIRE 592 48 592 16
WIRE 1024 48 1024 -128
WIRE 1024 48 880 48
WIRE 352 80 320 80
WIRE 464 80 432 80
WIRE 592 144 592 128
WIRE 736 144 736 32
WIRE 736 144 592 144
WIRE 960 144 960 -128
WIRE 1056 144 960 144
WIRE 1152 144 1152 32
WIRE 1152 144 1136 144
WIRE 1184 144 1152 144
WIRE 592 160 592 144
WIRE 1296 160 1296 32
WIRE 1296 160 1248 160
WIRE 1184 176 1152 176
WIRE 224 192 144 192
WIRE 320 192 320 80
WIRE 320 192 304 192
WIRE 352 192 320 192
WIRE -192 208 -208 208
WIRE -96 208 -128 208
WIRE 464 208 464 80
WIRE 464 208 416 208
WIRE 816 208 736 208
WIRE -96 224 -96 208
WIRE 1056 224 880 224
WIRE 1152 224 1152 176
WIRE 1152 224 1136 224
WIRE 144 240 144 192
WIRE 144 240 80 240
WIRE 80 256 80 240
WIRE 592 256 592 240
WIRE 736 256 736 208
WIRE 736 256 592 256
WIRE 1152 256 1152 224
WIRE 320 272 320 192
WIRE 320 272 304 272
WIRE 592 272 592 256
FLAG 16 96 0
FLAG -64 96 0
FLAG 96 96 0
FLAG -64 16 Vcc
FLAG 384 176 Vcc
FLAG 16 16 -Vcc
FLAG 96 16 Vin
FLAG 384 240 -Vcc
FLAG -96 288 0
FLAG -208 208 Vin2
FLAG -96 208 Va
FLAG 224 272 Vin
FLAG 80 336 0
FLAG 80 160 -Vcc
FLAG 464 208 Vin2
FLAG 352 224 0
FLAG 848 16 Vcc
FLAG 848 192 Vcc
FLAG 848 256 -Vcc
FLAG 592 352 0
FLAG 848 -336 Vcc
FLAG 848 -160 Vcc
FLAG 848 -96 -Vcc
FLAG 592 -208 Vcc
FLAG 816 240 Va
FLAG 816 64 Va
FLAG 816 -112 Va
FLAG 816 -288 Va
FLAG 960 -304 Vb
FLAG 1216 128 Vcc
FLAG 1216 192 -Vcc
FLAG 1152 336 0
FLAG 1216 -224 Vcc
FLAG 1216 -160 -Vcc
FLAG 1152 -16 0
FLAG 1296 -192 Vg
FLAG 1296 160 Vr
FLAG 848 80 0
FLAG 848 -272 0
SYMBOL OpAmps\\UniversalOpAmp4 384 208 R0
SYMATTR InstName U1
SYMBOL voltage -64 0 R0
WINDOW 123 0 0 Left 0
WINDOW 39 0 0 Left 0
SYMATTR InstName V1
SYMATTR Value 12
SYMBOL voltage 16 0 R0
WINDOW 123 0 0 Left 0
WINDOW 39 0 0 Left 0
SYMATTR InstName V2
SYMATTR Value -12
SYMBOL voltage 96 0 R0
WINDOW 123 0 0 Left 0
WINDOW 39 0 0 Left 0
SYMATTR InstName V3
SYMATTR Value SINE(0 2 20k)
SYMBOL diode -192 224 R270
WINDOW 0 32 32 VTop 2
WINDOW 3 0 32 VBottom 2
SYMATTR InstName D1
SYMBOL cap -112 224 R0
SYMATTR InstName C1
SYMATTR Value 0.1µ
SYMBOL res 64 144 R0
SYMATTR InstName R1
SYMATTR Value 11.3k
SYMBOL res 64 240 R0
SYMATTR InstName R2
SYMATTR Value 1k
SYMBOL res 320 176 R90
WINDOW 0 0 56 VBottom 2
WINDOW 3 32 56 VTop 2
SYMATTR InstName R3
SYMATTR Value 1k
SYMBOL res 320 256 R90
WINDOW 0 0 56 VBottom 2
WINDOW 3 32 56 VTop 2
SYMATTR InstName R4
SYMATTR Value 1k
SYMBOL res 448 64 R90
WINDOW 0 0 56 VBottom 2
WINDOW 3 32 56 VTop 2
SYMATTR InstName R5
SYMATTR Value 1k
SYMBOL OpAmps\\UniversalOpAmp4 848 48 R0
SYMATTR InstName U2
SYMBOL OpAmps\\UniversalOpAmp4 848 224 R0
SYMATTR InstName U3
SYMBOL res 576 32 R0
SYMATTR InstName R6
SYMATTR Value 1k
SYMBOL res 576 144 R0
SYMATTR InstName R7
SYMATTR Value 1k
SYMBOL res 576 256 R0
SYMATTR InstName R8
SYMATTR Value 1k
SYMBOL OpAmps\\UniversalOpAmp4 848 -304 R0
SYMATTR InstName U5
SYMBOL OpAmps\\UniversalOpAmp4 848 -128 R0
SYMATTR InstName U6
SYMBOL res 576 -208 R0
SYMATTR InstName R13
SYMATTR Value 8k
SYMBOL res 576 -96 R0
SYMATTR InstName R14
SYMATTR Value 1k
SYMBOL OpAmps\\UniversalOpAmp4 1216 160 R0
SYMATTR InstName U7
SYMBOL res 1152 128 R90
WINDOW 0 0 56 VBottom 2
WINDOW 3 32 56 VTop 2
SYMATTR InstName R12
SYMATTR Value 1k
SYMBOL res 1152 208 R90
WINDOW 0 0 56 VBottom 2
WINDOW 3 32 56 VTop 2
SYMATTR InstName R15
SYMATTR Value 1k
SYMBOL res 1280 16 R90
WINDOW 0 0 56 VBottom 2
WINDOW 3 32 56 VTop 2
SYMATTR InstName R16
SYMATTR Value 1k
SYMBOL res 1136 240 R0
SYMATTR InstName R17
SYMATTR Value 1k
SYMBOL OpAmps\\UniversalOpAmp4 1216 -192 R0
SYMATTR InstName U4
SYMBOL res 1152 -224 R90
WINDOW 0 0 56 VBottom 2
WINDOW 3 32 56 VTop 2
SYMATTR InstName R9
SYMATTR Value 1k
SYMBOL res 1152 -144 R90
WINDOW 0 0 56 VBottom 2
WINDOW 3 32 56 VTop 2
SYMATTR InstName R10
SYMATTR Value 1k
SYMBOL res 1280 -336 R90
WINDOW 0 0 56 VBottom 2
WINDOW 3 32 56 VTop 2
SYMATTR InstName R11
SYMATTR Value 1k
SYMBOL res 1136 -112 R0
SYMATTR InstName R18
SYMATTR Value 1k
TEXT -260 312 Left 2 !.tran 1m
